# LPF package for  SEAWAT, generated by Flopy.
        53    -1E+30         0  
         0         0         0         0         0         0         0         0         0         0         0         0         0         0         0         0         0         0         0         0         0         0         0         0         0         0         0         0         0         0         0         0         0         0         0         0         0         0         0         0         0         0         0         0         0         0         0         0         0         0
         0         0         0         0         0         0         0         0         0         0         0         0         0         0         0         0         0         0         0         0         0         0         0         0         0         0         0         0         0         0         0         0         0         0         0         0         0         0         0         0         0         0         0         0         0         0         0         0         0         0
   1.000000E+00   1.000000E+00   1.000000E+00   1.000000E+00   1.000000E+00   1.000000E+00   1.000000E+00   1.000000E+00   1.000000E+00   1.000000E+00   1.000000E+00   1.000000E+00   1.000000E+00   1.000000E+00   1.000000E+00   1.000000E+00   1.000000E+00   1.000000E+00   1.000000E+00   1.000000E+00   1.000000E+00   1.000000E+00   1.000000E+00   1.000000E+00   1.000000E+00   1.000000E+00   1.000000E+00   1.000000E+00   1.000000E+00   1.000000E+00   1.000000E+00   1.000000E+00   1.000000E+00   1.000000E+00   1.000000E+00   1.000000E+00   1.000000E+00   1.000000E+00   1.000000E+00   1.000000E+00   1.000000E+00   1.000000E+00   1.000000E+00   1.000000E+00   1.000000E+00   1.000000E+00   1.000000E+00   1.000000E+00   1.000000E+00   1.000000E+00
         0         0         0         0         0         0         0         0         0         0         0         0         0         0         0         0         0         0         0         0         0         0         0         0         0         0         0         0         0         0         0         0         0         0         0         0         0         0         0         0         0         0         0         0         0         0         0         0         0         0
         0         0         0         0         0         0         0         0         0         0         0         0         0         0         0         0         0         0         0         0         0         0         0         0         0         0         0         0         0         0         0         0         0         0         0         0         0         0         0         0         0         0         0         0         0         0         0         0         0         0
         0        10                           -1 #hk layer 1
         0        10                           -1 #vka1
         0    0.0001                           -1 #ss layer 1
         0        10                           -1 #hk layer 2
         0        10                           -1 #vka2
         0    0.0001                           -1 #ss layer 2
         0        10                           -1 #hk layer 3
         0        10                           -1 #vka3
         0    0.0001                           -1 #ss layer 3
         0        10                           -1 #hk layer 4
         0        10                           -1 #vka4
         0    0.0001                           -1 #ss layer 4
         0        10                           -1 #hk layer 5
         0        10                           -1 #vka5
         0    0.0001                           -1 #ss layer 5
         0        10                           -1 #hk layer 6
         0        10                           -1 #vka6
         0    0.0001                           -1 #ss layer 6
         0        10                           -1 #hk layer 7
         0        10                           -1 #vka7
         0    0.0001                           -1 #ss layer 7
         0        10                           -1 #hk layer 8
         0        10                           -1 #vka8
         0    0.0001                           -1 #ss layer 8
         0        10                           -1 #hk layer 9
         0        10                           -1 #vka9
         0    0.0001                           -1 #ss layer 9
         0        10                           -1 #hk layer 10
         0        10                           -1 #vka10
         0    0.0001                           -1 #ss layer 10
         0        10                           -1 #hk layer 11
         0        10                           -1 #vka11
         0    0.0001                           -1 #ss layer 11
         0        10                           -1 #hk layer 12
         0        10                           -1 #vka12
         0    0.0001                           -1 #ss layer 12
         0        10                           -1 #hk layer 13
         0        10                           -1 #vka13
         0    0.0001                           -1 #ss layer 13
         0        10                           -1 #hk layer 14
         0        10                           -1 #vka14
         0    0.0001                           -1 #ss layer 14
         0        10                           -1 #hk layer 15
         0        10                           -1 #vka15
         0    0.0001                           -1 #ss layer 15
         0        10                           -1 #hk layer 16
         0        10                           -1 #vka16
         0    0.0001                           -1 #ss layer 16
         0        10                           -1 #hk layer 17
         0        10                           -1 #vka17
         0    0.0001                           -1 #ss layer 17
         0        10                           -1 #hk layer 18
         0        10                           -1 #vka18
         0    0.0001                           -1 #ss layer 18
         0        10                           -1 #hk layer 19
         0        10                           -1 #vka19
         0    0.0001                           -1 #ss layer 19
         0        10                           -1 #hk layer 20
         0        10                           -1 #vka20
         0    0.0001                           -1 #ss layer 20
         0        10                           -1 #hk layer 21
         0        10                           -1 #vka21
         0    0.0001                           -1 #ss layer 21
         0        10                           -1 #hk layer 22
         0        10                           -1 #vka22
         0    0.0001                           -1 #ss layer 22
         0        10                           -1 #hk layer 23
         0        10                           -1 #vka23
         0    0.0001                           -1 #ss layer 23
         0        10                           -1 #hk layer 24
         0        10                           -1 #vka24
         0    0.0001                           -1 #ss layer 24
         0        10                           -1 #hk layer 25
         0        10                           -1 #vka25
         0    0.0001                           -1 #ss layer 25
         0        10                           -1 #hk layer 26
         0        10                           -1 #vka26
         0    0.0001                           -1 #ss layer 26
         0        10                           -1 #hk layer 27
         0        10                           -1 #vka27
         0    0.0001                           -1 #ss layer 27
         0        10                           -1 #hk layer 28
         0        10                           -1 #vka28
         0    0.0001                           -1 #ss layer 28
         0        10                           -1 #hk layer 29
         0        10                           -1 #vka29
         0    0.0001                           -1 #ss layer 29
         0        10                           -1 #hk layer 30
         0        10                           -1 #vka30
         0    0.0001                           -1 #ss layer 30
         0        10                           -1 #hk layer 31
         0        10                           -1 #vka31
         0    0.0001                           -1 #ss layer 31
         0        10                           -1 #hk layer 32
         0        10                           -1 #vka32
         0    0.0001                           -1 #ss layer 32
         0        10                           -1 #hk layer 33
         0        10                           -1 #vka33
         0    0.0001                           -1 #ss layer 33
         0        10                           -1 #hk layer 34
         0        10                           -1 #vka34
         0    0.0001                           -1 #ss layer 34
         0        10                           -1 #hk layer 35
         0        10                           -1 #vka35
         0    0.0001                           -1 #ss layer 35
         0        10                           -1 #hk layer 36
         0        10                           -1 #vka36
         0    0.0001                           -1 #ss layer 36
         0        10                           -1 #hk layer 37
         0        10                           -1 #vka37
         0    0.0001                           -1 #ss layer 37
         0        10                           -1 #hk layer 38
         0        10                           -1 #vka38
         0    0.0001                           -1 #ss layer 38
         0        10                           -1 #hk layer 39
         0        10                           -1 #vka39
         0    0.0001                           -1 #ss layer 39
         0        10                           -1 #hk layer 40
         0        10                           -1 #vka40
         0    0.0001                           -1 #ss layer 40
         0        10                           -1 #hk layer 41
         0        10                           -1 #vka41
         0    0.0001                           -1 #ss layer 41
         0        10                           -1 #hk layer 42
         0        10                           -1 #vka42
         0    0.0001                           -1 #ss layer 42
         0        10                           -1 #hk layer 43
         0        10                           -1 #vka43
         0    0.0001                           -1 #ss layer 43
         0        10                           -1 #hk layer 44
         0        10                           -1 #vka44
         0    0.0001                           -1 #ss layer 44
         0        10                           -1 #hk layer 45
         0        10                           -1 #vka45
         0    0.0001                           -1 #ss layer 45
         0        10                           -1 #hk layer 46
         0        10                           -1 #vka46
         0    0.0001                           -1 #ss layer 46
         0        10                           -1 #hk layer 47
         0        10                           -1 #vka47
         0    0.0001                           -1 #ss layer 47
         0        10                           -1 #hk layer 48
         0        10                           -1 #vka48
         0    0.0001                           -1 #ss layer 48
         0        10                           -1 #hk layer 49
         0        10                           -1 #vka49
         0    0.0001                           -1 #ss layer 49
         0        10                           -1 #hk layer 50
         0        10                           -1 #vka50
         0    0.0001                           -1 #ss layer 50
