# DIS package for  SEAWAT, generated by Flopy.
        50         1       100         1         4         2
  0  0  0  0  0  0  0  0  0  0  0  0  0  0  0  0  0  0  0  0  0  0  0  0  0  0  0  0  0  0  0  0  0  0  0  0  0  0  0  0  0  0  0  0  0  0  0  0  0  0
         0        10                           -1 #delr
         0         1                           -1 #delc
         0       500                           -1 #model_top
         0       490                           -1 #botm layer 1
         0       480                           -1 #botm layer 2
         0       470                           -1 #botm layer 3
         0       460                           -1 #botm layer 4
         0       450                           -1 #botm layer 5
         0       440                           -1 #botm layer 6
         0       430                           -1 #botm layer 7
         0       420                           -1 #botm layer 8
         0       410                           -1 #botm layer 9
         0       400                           -1 #botm layer 10
         0       390                           -1 #botm layer 11
         0       380                           -1 #botm layer 12
         0       370                           -1 #botm layer 13
         0       360                           -1 #botm layer 14
         0       350                           -1 #botm layer 15
         0       340                           -1 #botm layer 16
         0       330                           -1 #botm layer 17
         0       320                           -1 #botm layer 18
         0       310                           -1 #botm layer 19
         0       300                           -1 #botm layer 20
         0       290                           -1 #botm layer 21
         0       280                           -1 #botm layer 22
         0       270                           -1 #botm layer 23
         0       260                           -1 #botm layer 24
         0       250                           -1 #botm layer 25
         0       240                           -1 #botm layer 26
         0       230                           -1 #botm layer 27
         0       220                           -1 #botm layer 28
         0       210                           -1 #botm layer 29
         0       200                           -1 #botm layer 30
         0       190                           -1 #botm layer 31
         0       180                           -1 #botm layer 32
         0       170                           -1 #botm layer 33
         0       160                           -1 #botm layer 34
         0       150                           -1 #botm layer 35
         0       140                           -1 #botm layer 36
         0       130                           -1 #botm layer 37
         0       120                           -1 #botm layer 38
         0       110                           -1 #botm layer 39
         0       100                           -1 #botm layer 40
         0        90                           -1 #botm layer 41
         0        80                           -1 #botm layer 42
         0        70                           -1 #botm layer 43
         0        60                           -1 #botm layer 44
         0        50                           -1 #botm layer 45
         0        40                           -1 #botm layer 46
         0        30                           -1 #botm layer 47
         0        20                           -1 #botm layer 48
         0        10                           -1 #botm layer 49
         0         0                           -1 #botm layer 50
   7300.000000           730  1.000000  TR 
