# LPF package for  SEAWAT, generated by Flopy.
        53    -1E+30         0  
         0         0         0         0         0         0         0         0         0         0         0         0         0         0         0         0         0         0         0         0         0         0         0         0         0         0         0         0         0         0         0
         0         0         0         0         0         0         0         0         0         0         0         0         0         0         0         0         0         0         0         0         0         0         0         0         0         0         0         0         0         0         0
   1.000000E+00   1.000000E+00   1.000000E+00   1.000000E+00   1.000000E+00   1.000000E+00   1.000000E+00   1.000000E+00   1.000000E+00   1.000000E+00   1.000000E+00   1.000000E+00   1.000000E+00   1.000000E+00   1.000000E+00   1.000000E+00   1.000000E+00   1.000000E+00   1.000000E+00   1.000000E+00   1.000000E+00   1.000000E+00   1.000000E+00   1.000000E+00   1.000000E+00   1.000000E+00   1.000000E+00   1.000000E+00   1.000000E+00   1.000000E+00   1.000000E+00
         0         0         0         0         0         0         0         0         0         0         0         0         0         0         0         0         0         0         0         0         0         0         0         0         0         0         0         0         0         0         0
         0         0         0         0         0         0         0         0         0         0         0         0         0         0         0         0         0         0         0         0         0         0         0         0         0         0         0         0         0         0         0
         0        10                           -1 #hk layer 1
         0        10                           -1 #vka1
         0    0.0001                           -1 #ss layer 1
         0        10                           -1 #hk layer 2
         0        10                           -1 #vka2
         0    0.0001                           -1 #ss layer 2
         0        10                           -1 #hk layer 3
         0        10                           -1 #vka3
         0    0.0001                           -1 #ss layer 3
         0        10                           -1 #hk layer 4
         0        10                           -1 #vka4
         0    0.0001                           -1 #ss layer 4
         0        10                           -1 #hk layer 5
         0        10                           -1 #vka5
         0    0.0001                           -1 #ss layer 5
         0        10                           -1 #hk layer 6
         0        10                           -1 #vka6
         0    0.0001                           -1 #ss layer 6
         0        10                           -1 #hk layer 7
         0        10                           -1 #vka7
         0    0.0001                           -1 #ss layer 7
         0        10                           -1 #hk layer 8
         0        10                           -1 #vka8
         0    0.0001                           -1 #ss layer 8
         0        10                           -1 #hk layer 9
         0        10                           -1 #vka9
         0    0.0001                           -1 #ss layer 9
         0        10                           -1 #hk layer 10
         0        10                           -1 #vka10
         0    0.0001                           -1 #ss layer 10
         0        10                           -1 #hk layer 11
         0        10                           -1 #vka11
         0    0.0001                           -1 #ss layer 11
         0        10                           -1 #hk layer 12
         0        10                           -1 #vka12
         0    0.0001                           -1 #ss layer 12
         0        10                           -1 #hk layer 13
         0        10                           -1 #vka13
         0    0.0001                           -1 #ss layer 13
         0        10                           -1 #hk layer 14
         0        10                           -1 #vka14
         0    0.0001                           -1 #ss layer 14
         0        10                           -1 #hk layer 15
         0        10                           -1 #vka15
         0    0.0001                           -1 #ss layer 15
         0        10                           -1 #hk layer 16
         0        10                           -1 #vka16
         0    0.0001                           -1 #ss layer 16
         0        10                           -1 #hk layer 17
         0        10                           -1 #vka17
         0    0.0001                           -1 #ss layer 17
         0        10                           -1 #hk layer 18
         0        10                           -1 #vka18
         0    0.0001                           -1 #ss layer 18
         0        10                           -1 #hk layer 19
         0        10                           -1 #vka19
         0    0.0001                           -1 #ss layer 19
         0        10                           -1 #hk layer 20
         0        10                           -1 #vka20
         0    0.0001                           -1 #ss layer 20
         0        10                           -1 #hk layer 21
         0        10                           -1 #vka21
         0    0.0001                           -1 #ss layer 21
         0        10                           -1 #hk layer 22
         0        10                           -1 #vka22
         0    0.0001                           -1 #ss layer 22
         0        10                           -1 #hk layer 23
         0        10                           -1 #vka23
         0    0.0001                           -1 #ss layer 23
         0        10                           -1 #hk layer 24
         0        10                           -1 #vka24
         0    0.0001                           -1 #ss layer 24
         0        10                           -1 #hk layer 25
         0        10                           -1 #vka25
         0    0.0001                           -1 #ss layer 25
         0        10                           -1 #hk layer 26
         0        10                           -1 #vka26
         0    0.0001                           -1 #ss layer 26
         0        10                           -1 #hk layer 27
         0        10                           -1 #vka27
         0    0.0001                           -1 #ss layer 27
         0        10                           -1 #hk layer 28
         0        10                           -1 #vka28
         0    0.0001                           -1 #ss layer 28
         0        10                           -1 #hk layer 29
         0        10                           -1 #vka29
         0    0.0001                           -1 #ss layer 29
         0        10                           -1 #hk layer 30
         0        10                           -1 #vka30
         0    0.0001                           -1 #ss layer 30
         0        10                           -1 #hk layer 31
         0        10                           -1 #vka31
         0    0.0001                           -1 #ss layer 31
