# DIS package for  SEAWAT, generated by Flopy.
        31         1       120         1         4         2
  0  0  0  0  0  0  0  0  0  0  0  0  0  0  0  0  0  0  0  0  0  0  0  0  0  0  0  0  0  0  0
         0         5                           -1 #delr
         0         1                           -1 #delc
         0         5                           -1 #model_top
         0         0                           -1 #botm layer 1
         0        -5                           -1 #botm layer 2
         0       -10                           -1 #botm layer 3
         0       -15                           -1 #botm layer 4
         0       -20                           -1 #botm layer 5
         0       -25                           -1 #botm layer 6
         0       -30                           -1 #botm layer 7
         0       -35                           -1 #botm layer 8
         0       -40                           -1 #botm layer 9
         0       -45                           -1 #botm layer 10
         0       -50                           -1 #botm layer 11
         0       -55                           -1 #botm layer 12
         0       -60                           -1 #botm layer 13
         0       -65                           -1 #botm layer 14
         0       -70                           -1 #botm layer 15
         0       -75                           -1 #botm layer 16
         0       -80                           -1 #botm layer 17
         0       -85                           -1 #botm layer 18
         0       -90                           -1 #botm layer 19
         0       -95                           -1 #botm layer 20
         0      -100                           -1 #botm layer 21
         0      -105                           -1 #botm layer 22
         0      -110                           -1 #botm layer 23
         0      -115                           -1 #botm layer 24
         0      -120                           -1 #botm layer 25
         0      -125                           -1 #botm layer 26
         0      -130                           -1 #botm layer 27
         0      -135                           -1 #botm layer 28
         0      -140                           -1 #botm layer 29
         0      -145                           -1 #botm layer 30
         0      -150                           -1 #botm layer 31
   7200.000000           720  1.000000  TR 
