# WEL package for  SEAWAT, generated by Flopy.
         3         0 
         3         0 # stress period 1
         5         1        46             0.0
         5         1        51             0.0
         5         1        56             0.0
         3         0 # stress period 2
         5         1        46             0.0
         5         1        51             0.0
         5         1        56             0.0
         3         0 # stress period 3
         5         1        46             0.0
         5         1        51             0.0
         5         1        56             0.0
         3         0 # stress period 4
         5         1        46             0.0
         5         1        51             0.0
         5         1        56             0.0
         3         0 # stress period 5
         5         1        46             0.0
         5         1        51             0.0
         5         1        56             0.0
         3         0 # stress period 6
         5         1        46             0.0
         5         1        51             0.0
         5         1        56             0.0
         3         0 # stress period 7
         5         1        46             0.0
         5         1        51             0.0
         5         1        56             0.0
         3         0 # stress period 8
         5         1        46             0.0
         5         1        51             0.0
         5         1        56             0.0
         3         0 # stress period 9
         5         1        46             0.0
         5         1        51             0.0
         5         1        56             0.0
         3         0 # stress period 10
         5         1        46             0.0
         5         1        51             0.0
         5         1        56             0.0
         3         0 # stress period 11
         5         1        46             0.0
         5         1        51             0.0
         5         1        56             0.0
         3         0 # stress period 12
         5         1        46           -0.25
         5         1        51           -0.25
         5         1        56           -0.25
         3         0 # stress period 13
         5         1        46           -0.25
         5         1        51           -0.25
         5         1        56           -0.25
         3         0 # stress period 14
         5         1        46           -0.25
         5         1        51           -0.25
         5         1        56           -0.25
         3         0 # stress period 15
         5         1        46           -0.25
         5         1        51           -0.25
         5         1        56           -0.25
         3         0 # stress period 16
         5         1        46           -0.25
         5         1        51           -0.25
         5         1        56           -0.25
         3         0 # stress period 17
         5         1        46           -0.25
         5         1        51           -0.25
         5         1        56           -0.25
         3         0 # stress period 18
         5         1        46           -0.25
         5         1        51           -0.25
         5         1        56           -0.25
         3         0 # stress period 19
         5         1        46           -0.25
         5         1        51           -0.25
         5         1        56           -0.25
         3         0 # stress period 20
         5         1        46           -0.25
         5         1        51           -0.25
         5         1        56           -0.25
         3         0 # stress period 21
         5         1        46           -0.25
         5         1        51           -0.25
         5         1        56           -0.25
