## BTN for MT3DMS, generated by Flopy.
##
        15         1       100        21         1         1
D   M   KG  
T T T F T 
 0 0 0 0 0 0 0 0 0 0 0 0 0 0 0
         0       100                           -1 #delr
         0         1                           -1 #delc
         0         0                           -1 #htop
         0        10                           -1 #dz layer 1
         0        10                           -1 #dz layer 2
         0        10                           -1 #dz layer 3
         0        10                           -1 #dz layer 4
         0        10                           -1 #dz layer 5
         0        10                           -1 #dz layer 6
         0        10                           -1 #dz layer 7
         0        10                           -1 #dz layer 8
         0        10                           -1 #dz layer 9
         0        10                           -1 #dz layer 10
         0        10                           -1 #dz layer 11
         0        10                           -1 #dz layer 12
         0        10                           -1 #dz layer 13
         0        10                           -1 #dz layer 14
         0        10                           -1 #dz layer 15
         0      0.35                           -1 #prsity layer 1
         0      0.35                           -1 #prsity layer 2
         0      0.35                           -1 #prsity layer 3
         0      0.35                           -1 #prsity layer 4
         0      0.35                           -1 #prsity layer 5
         0      0.35                           -1 #prsity layer 6
         0      0.35                           -1 #prsity layer 7
         0      0.35                           -1 #prsity layer 8
         0      0.35                           -1 #prsity layer 9
         0      0.35                           -1 #prsity layer 10
         0      0.35                           -1 #prsity layer 11
         0      0.35                           -1 #prsity layer 12
         0      0.35                           -1 #prsity layer 13
         0      0.35                           -1 #prsity layer 14
         0      0.35                           -1 #prsity layer 15
         0         1                           -1 #icbund layer 1
         0         1                           -1 #icbund layer 2
         0         1                           -1 #icbund layer 3
         0         1                           -1 #icbund layer 4
         0         1                           -1 #icbund layer 5
         0         1                           -1 #icbund layer 6
         0         1                           -1 #icbund layer 7
         0         1                           -1 #icbund layer 8
         0         1                           -1 #icbund layer 9
         0         1                           -1 #icbund layer 10
         0         1                           -1 #icbund layer 11
         0         1                           -1 #icbund layer 12
         0         1                           -1 #icbund layer 13
         0         1                           -1 #icbund layer 14
         0         1                           -1 #icbund layer 15
         0     19000                           -1 #sconc1 layer 1
         0     19000                           -1 #sconc1 layer 2
         0     19000                           -1 #sconc1 layer 3
         0     19000                           -1 #sconc1 layer 4
         0     19000                           -1 #sconc1 layer 5
         0     19000                           -1 #sconc1 layer 6
         0     19000                           -1 #sconc1 layer 7
         0     19000                           -1 #sconc1 layer 8
         0     19000                           -1 #sconc1 layer 9
         0     19000                           -1 #sconc1 layer 10
         0     19000                           -1 #sconc1 layer 11
         0     19000                           -1 #sconc1 layer 12
         0     19000                           -1 #sconc1 layer 13
         0     19000                           -1 #sconc1 layer 14
         0     19000                           -1 #sconc1 layer 15
     1E+30  1.00E-02
         0         0         0         0         T
        20
1.0000E-029.6118E+031.9224E+042.8836E+043.8447E+044.8059E+045.7671E+046.7283E+04
7.6895E+048.6507E+049.6118E+041.0573E+051.1534E+051.2495E+051.3457E+051.4418E+05
1.5379E+051.6340E+051.7301E+051.8262E+05
         0         1
         T         1
     1E-09         1         1
         0     50000         1         0
   9131.25        25         1
         0     50000         1         0
   9131.25        25         1
         0     50000         1         0
   9131.25        25         1
         0     50000         1         0
   9131.25        25         1
         0     50000         1         0
   9131.25        25         1
         0     50000         1         0
   9131.25        25         1
         0     50000         1         0
   9131.25        25         1
         0     50000         1         0
   9131.25        25         1
         0     50000         1         0
   9131.25        25         1
         0     50000         1         0
   9131.25        25         1
         0     50000         1         0
   9131.25        25         1
         0     50000         1         0
   9131.25        25         1
         0     50000         1         0
   9131.25        25         1
         0     50000         1         0
   9131.25        25         1
         0     50000         1         0
   9131.25        25         1
         0     50000         1         0
   9131.25        25         1
         0     50000         1         0
   9131.25        25         1
         0     50000         1         0
   9131.25        25         1
         0     50000         1         0
   9131.25        25         1
         0     50000         1         0
   9131.25        25         1
         0     50000         1         0
