# DIS package for  SEAWAT, generated by Flopy.
        15         1       100        21         4         2
  0  0  0  0  0  0  0  0  0  0  0  0  0  0  0
         0       100                           -1 #delr
         0         1                           -1 #delc
         0         0                           -1 #model_top
         0       -10                           -1 #botm layer 1
         0       -20                           -1 #botm layer 2
         0       -30                           -1 #botm layer 3
         0       -40                           -1 #botm layer 4
         0       -50                           -1 #botm layer 5
         0       -60                           -1 #botm layer 6
         0       -70                           -1 #botm layer 7
         0       -80                           -1 #botm layer 8
         0       -90                           -1 #botm layer 9
         0      -100                           -1 #botm layer 10
         0      -110                           -1 #botm layer 11
         0      -120                           -1 #botm layer 12
         0      -130                           -1 #botm layer 13
         0      -140                           -1 #botm layer 14
         0      -150                           -1 #botm layer 15
      0.000000             1  1.000000  SS 
   9131.250000            25  1.000000  SS 
   9131.250000            25  1.000000  SS 
   9131.250000            25  1.000000  SS 
   9131.250000            25  1.000000  SS 
   9131.250000            25  1.000000  SS 
   9131.250000            25  1.000000  SS 
   9131.250000            25  1.000000  SS 
   9131.250000            25  1.000000  SS 
   9131.250000            25  1.000000  SS 
   9131.250000            25  1.000000  SS 
   9131.250000            25  1.000000  SS 
   9131.250000            25  1.000000  SS 
   9131.250000            25  1.000000  SS 
   9131.250000            25  1.000000  SS 
   9131.250000            25  1.000000  SS 
   9131.250000            25  1.000000  SS 
   9131.250000            25  1.000000  SS 
   9131.250000            25  1.000000  SS 
   9131.250000            25  1.000000  SS 
   9131.250000            25  1.000000  SS 
