# LPF package for  SEAWAT, generated by Flopy.
        53    -1E+30         0  
         0         0         0         0         0         0         0         0         0         0         0         0         0         0         0
         0         0         0         0         0         0         0         0         0         0         0         0         0         0         0
   1.000000E+00   1.000000E+00   1.000000E+00   1.000000E+00   1.000000E+00   1.000000E+00   1.000000E+00   1.000000E+00   1.000000E+00   1.000000E+00   1.000000E+00   1.000000E+00   1.000000E+00   1.000000E+00   1.000000E+00
         0         0         0         0         0         0         0         0         0         0         0         0         0         0         0
         0         0         0         0         0         0         0         0         0         0         0         0         0         0         0
         0        25                           -1 #hk layer 1
         0       2.5                           -1 #vka1
         0        25                           -1 #hk layer 2
         0       2.5                           -1 #vka2
         0        25                           -1 #hk layer 3
         0       2.5                           -1 #vka3
         0        25                           -1 #hk layer 4
         0       2.5                           -1 #vka4
         0        25                           -1 #hk layer 5
         0       2.5                           -1 #vka5
         0        25                           -1 #hk layer 6
         0       2.5                           -1 #vka6
         0        25                           -1 #hk layer 7
         0       2.5                           -1 #vka7
         0        25                           -1 #hk layer 8
         0       2.5                           -1 #vka8
         0        25                           -1 #hk layer 9
         0       2.5                           -1 #vka9
         0        25                           -1 #hk layer 10
         0       2.5                           -1 #vka10
         0        25                           -1 #hk layer 11
         0       2.5                           -1 #vka11
         0        25                           -1 #hk layer 12
         0       2.5                           -1 #vka12
         0        25                           -1 #hk layer 13
         0       2.5                           -1 #vka13
         0        25                           -1 #hk layer 14
         0       2.5                           -1 #vka14
         0        25                           -1 #hk layer 15
         0       2.5                           -1 #vka15
